# Id: pflotran-test-flow.in, Mon 17 Oct 2016 09:52:36 AM MDT pandeys #
# Created by Sachin Pandey, LANL
# Description:
#------------------------------------------------------------------------------
#=========================== flow mode ========================================
SIMULATION
  SIMULATION_TYPE SUBSURFACE
  PROCESS_MODELS
    SUBSURFACE_FLOW flow
      MODE RICHARDS
    /
    SUBSURFACE_TRANSPORT transport
      GLOBAL_IMPLICIT
      NUMERICAL_JACOBIAN
    /
  /
END

SUBSURFACE

#=========================== chemistry ========================================
CHEMISTRY
  PRIMARY_SPECIES
    A(aq)
  END
  DATABASE /scratch/ymp/sach/Programs/pflotran-dev/database/hanford.dat
  OUTPUT
    ALL
    FREE_ION
    TOTAL
  /
  LOG_FORMULATION
END

#=========================== discretization ===================================
GRID
  TYPE structured
  NXYZ 125 75 1
  BOUNDS
    0.0 0.0 0.0
    125.0 75.0 30
  /
END

#============================== dataset =======================================
DATASET Permeability
  FILENAME ../fieldGeneration/rand_125x75_corr10_sig1_20mpd.h5
END

#=========================== fluid properties =================================
FLUID_PROPERTY
  DIFFUSION_COEFFICIENT 1.d-9
END

#=========================== material properties ==============================
MATERIAL_PROPERTY soil1
  ID 1
  POROSITY 0.15d0
  TORTUOSITY 1.d0
  SATURATION_FUNCTION cc1
  ROCK_DENSITY 1200.d0 # kg/m^3_bulk
  PERMEABILITY
    DATASET Permeability
  /
#  LONGITUDINAL_DISPERSIVITY 5.d0
END

#=========================== characteristic curves ============================
CHARACTERISTIC_CURVES cc1
  SATURATION_FUNCTION VAN_GENUCHTEN
    ALPHA  1.d-4
    M 0.5d0
    LIQUID_RESIDUAL_SATURATION 0.1d0
  /
  PERMEABILITY_FUNCTION MUALEM_VG_LIQ
    M 0.5d0
    LIQUID_RESIDUAL_SATURATION 0.1d0
  /
END

#=========================== output options ===================================
OUTPUT
#  FORMAT TECPLOT BLOCK
  FORMAT HDF5
  VELOCITY_AT_CENTER
  VARIABLES
    LIQUID_SATURATION
    LIQUID_PRESSURE
    LIQUID_HEAD 
    PERMEABILITY
  END
  PERIODIC TIME 1.d0 d
#  PERIODIC_OBSERVATION TIME 1 d
  PRINT_COLUMN_IDS
END

#=========================== times ============================================
TIME
  FINAL_TIME 100.d0 d
  INITIAL_TIMESTEP_SIZE 1.d-10 y 
  MAXIMUM_TIMESTEP_SIZE 1.d0 d at 0.0 d
#  MAXIMUM_TIMESTEP_SIZE 1.d-2 d at 10.0 d
#  MAXIMUM_TIMESTEP_SIZE 1.d0 d at 10.01 d
END

#=========================== regions ==========================================
REGION all
  COORDINATES
     0.0 0.0 0.0
     125.0 75.0 30.0
  /
END

REGION west
  FACE WEST
  COORDINATES
     0.0 0.0 0.0
     0.0 75.0 30.0
  /
END

REGION east
  FACE EAST
  COORDINATES
     125.0 0.0 0.0
     125.0 75.0 30.0
  /
END

REGION south
  FACE SOUTH
  COORDINATES
     0.0 0.0 0.0
     125.0 0.0 30.0
  /
END

REGION north
  FACE NORTH
  COORDINATES
     0.0 75.0 0.0
     125.0 75.0 30.0
  /
END

REGION well_injection
  COORDINATES
    40.50 37.50 0.0
    40.50 37.50 30.0
  /
END

#=========================== flow conditions ==================================
FLOW_CONDITION initial
  TYPE
    PRESSURE hydrostatic
  /
  DATUM 0.d0 0.d0 0.d0
  PRESSURE 9.77879911e+06
END

FLOW_CONDITION no_flow
  TYPE
    FLUX neumann
  /
  FLUX 0.d0
END

FLOW_CONDITION west
  TYPE
    PRESSURE hydrostatic
  /
  DATUM 0.d0 0.d0 0.d0
  PRESSURE 9.77879911e+06
END

FLOW_CONDITION east
  TYPE
    PRESSURE hydrostatic
  /
  DATUM 0.d0 0.d0 0.d0
  PRESSURE 9.76963149e+06
END

FLOW_CONDITION well
  TYPE
    RATE mass_rate 
#    RATE volumetric_rate 
  /
  RATE list
    TIME_UNITS d
    DATA_UNITS kg/s
#    DATA_UNITS m^3/day
    0.d0    0.d0
    10.d0   0.629110
#    10.d0   100.0
    30.d0   0.d0
  /
END

#=========================== transport conditions =============================
TRANSPORT_CONDITION initial
  TYPE dirichlet
  CONSTRAINT_LIST
    0.d0 initial
  /
END

TRANSPORT_CONDITION inlet
  TYPE dirichlet_zero_gradient
  CONSTRAINT_LIST
    0.d0 initial
  /
END

TRANSPORT_CONDITION injectant
  TYPE dirichlet
  CONSTRAINT_LIST
    0.d0 injectant
  /
END

TRANSPORT_CONDITION outlet
  TYPE dirichlet_zero_gradient
  CONSTRAINT_LIST
    0.d0 initial
  /
END

#=========================== constraints ======================================^M
CONSTRAINT initial
  CONCENTRATIONS
    A(aq)   1.d-20 T
  /
END

CONSTRAINT injectant
  CONCENTRATIONS
    A(aq)   1.d-2 T
   /
END

#=========================== condition couplers ===============================
# initial condition
INITIAL_CONDITION
  TRANSPORT_CONDITION initial
  FLOW_CONDITION initial
  REGION all
END

BOUNDARY_CONDITION west
  TRANSPORT_CONDITION inlet
  FLOW_CONDITION west 
  REGION west 
END

BOUNDARY_CONDITION east  
  TRANSPORT_CONDITION outlet
  FLOW_CONDITION east 
  REGION east
END

SOURCE_SINK
  TRANSPORT_CONDITION injectant
  FLOW_CONDITION well
  REGION well_injection
END

#=========================== stratigraphy couplers ============================
STRATA
  REGION all 
  MATERIAL soil1
END

END_SUBSURFACE
