# Id: pflotran-test-flow.in, Mon 17 Oct 2016 09:52:36 AM MDT pandeys #
# Created by Sachin Pandey, LANL
# Description:
#------------------------------------------------------------------------------
#=========================== flow mode ========================================
SIMULATION
  SIMULATION_TYPE SUBSURFACE
  PROCESS_MODELS
    SUBSURFACE_FLOW flow
      MODE RICHARDS
    /
    SUBSURFACE_TRANSPORT transport
      GLOBAL_IMPLICIT
    /
  /
END

SUBSURFACE

#=========================== chemistry ========================================
NUMERICAL_JACOBIAN_RXN
CHEMISTRY
  PRIMARY_SPECIES
    A(aq)
    H+
    O2(aq)
    CrO4--
    S2O4--
    S2O3--
    SO3--
    SO4--
    Fe+++
    Cr+++
    HCO3-
    Ca++
    K+
  /
  SECONDARY_SPECIES
    OH-
    CO3--
    CO2(aq)
  /
  IMMOBILE_SPECIES
    slow_Fe++
    fast_Fe++
  /
  REACTION_SANDBOX
    S2O4_DISP
      RATE_CONSTANT 3.61d-5 # /s, Istok (1999), 0.13 /hr
      EPS 1.d-50
    /
    S2O4_O2
      RATE_CONSTANT 1.d0 # /s
      EPS 1.d-50
    /
    S2O4_FE3
      RATE_CONSTANT 1.0d-5 # /s
      SSA 175 # m^2/g
      ROCK_DENSITY 1200.d0 # m^3/m^3_bulk
      FRACTION 0.6
      EPS 1.d-50
    /
    FE2_O2
      RATE_CONSTANT_SLOW 1.d-1 # /s
      RATE_CONSTANT_FAST 1.d1 # /s
      ROCK_DENSITY 1200.d0 # kg/m^3_bulk
      EPS 1.d-50
    /
    FE2_CR6
      RATE_CONSTANT_SLOW 1.d-1 # /s
      RATE_CONSTANT_FAST 1.d1  # /s
      ROCK_DENSITY 1200.d0 # kg/m^3_bulk
      EPS 1.d-50
    /
  /
  MINERALS
    Fe(OH)3(s)
    Cr(OH)3(s)
    Calcite
  /
  MINERAL_KINETICS
    Fe(OH)3(s)
      RATE_CONSTANT 1.d-5 mol/m^2-sec
    /
    Cr(OH)3(s)
      RATE_CONSTANT 1.d-5 mol/m^2-sec
    /
    Calcite
      RATE_CONSTANT 1.d-5 mol/m^2-sec
    /
  /
  DATABASE ../../chromium_dithionite_2017.dat
  ACTIVITY_COEFFICIENTS TIMESTEP
  LOG_FORMULATION
  OUTPUT
    ALL
    TOTAL
    PH
#    FREE_ION
#    SECONDARY_SPECIES
  /
END

#=========================== solver options ===================================
NEWTON_SOLVER TRANSPORT
#  RTOL 1.d-12
END

#=========================== discretization ===================================
GRID
  TYPE structured
  NXYZ 125 75 1
  BOUNDS
    0.0 0.0 0.0
    125.0 75.0 30
  /
END

#=========================== fluid properties =================================
FLUID_PROPERTY
  DIFFUSION_COEFFICIENT 1.d-9
END

#=========================== material properties ==============================
MATERIAL_PROPERTY soil1
  ID 1
  POROSITY 0.15d0
  TORTUOSITY 1.d0
  SATURATION_FUNCTION cc1
  ROCK_DENSITY 1200.d0 # kg/m^3_bulk
  PERMEABILITY
    PERM_ISO 2.36944d-11
  /
#  LONGITUDINAL_DISPERSIVITY 5.d0
END

#=========================== characteristic curves ============================
CHARACTERISTIC_CURVES cc1
  SATURATION_FUNCTION VAN_GENUCHTEN
    ALPHA  1.d-4
    M 0.5d0
    LIQUID_RESIDUAL_SATURATION 0.1d0
  /
  PERMEABILITY_FUNCTION MUALEM_VG_LIQ
    M 0.5d0
    LIQUID_RESIDUAL_SATURATION 0.1d0
  /
END

#=========================== output options ===================================
OUTPUT
#  FORMAT TECPLOT BLOCK
  FORMAT HDF5
  VELOCITY_AT_CENTER
  VARIABLES
    LIQUID_SATURATION
    LIQUID_PRESSURE
    LIQUID_HEAD 
    PERMEABILITY
  END
  PERIODIC TIME 1.d0 d
#  PERIODIC_OBSERVATION TIME 1 d
  PRINT_COLUMN_IDS
END

#=========================== times ============================================
TIME
  FINAL_TIME 100.d0 d
  INITIAL_TIMESTEP_SIZE 1.d-12 y 
  MAXIMUM_TIMESTEP_SIZE 1.d0 d at 0.0 d
  MAXIMUM_TIMESTEP_SIZE 1.d-4 d at 10.0 d
  MAXIMUM_TIMESTEP_SIZE 1.d-1 d at 10.0001 d
  MAXIMUM_TIMESTEP_SIZE 1.d0 d at 30.0 d
END

#=========================== regions ==========================================
REGION all
  COORDINATES
     0.0 0.0 0.0
     125.0 75.0 30.0
  /
END

REGION west
  FACE WEST
  COORDINATES
     0.0 0.0 0.0
     0.0 75.0 30.0
  /
END

REGION east
  FACE EAST
  COORDINATES
     125.0 0.0 0.0
     125.0 75.0 30.0
  /
END

REGION south
  FACE SOUTH
  COORDINATES
     0.0 0.0 0.0
     125.0 0.0 30.0
  /
END

REGION north
  FACE NORTH
  COORDINATES
     0.0 75.0 0.0
     125.0 75.0 30.0
  /
END

REGION well_injection
  COORDINATES
    40.50 37.50 0.0
    40.50 37.50 30.0
  /
END

#=========================== flow conditions ==================================
FLOW_CONDITION initial
  TYPE
    PRESSURE hydrostatic
  /
  DATUM 0.d0 0.d0 0.d0
  PRESSURE 9.77879911e+06
END

FLOW_CONDITION no_flow
  TYPE
    FLUX neumann
  /
  FLUX 0.d0
END

FLOW_CONDITION west
  TYPE
    PRESSURE hydrostatic
  /
  DATUM 0.d0 0.d0 0.d0
  PRESSURE 9.77879911e+06
END

FLOW_CONDITION east
  TYPE
    PRESSURE hydrostatic
  /
  DATUM 0.d0 0.d0 0.d0
  PRESSURE 9.76963149e+06
END

FLOW_CONDITION well
  TYPE
    RATE mass_rate 
#    RATE volumetric_rate 
  /
  RATE list
    TIME_UNITS d
    DATA_UNITS kg/s
#    DATA_UNITS m^3/day
    0.d0    0.d0
    10.d0   0.629110
#    10.d0   100.0
    30.d0   0.d0
  /
END

#=========================== transport conditions =============================
TRANSPORT_CONDITION initial
  TYPE dirichlet
  CONSTRAINT_LIST
    0.d0 initial
  /
END

TRANSPORT_CONDITION inlet
  TYPE dirichlet_zero_gradient
  CONSTRAINT_LIST
    0.d0 inlet
  /
END

TRANSPORT_CONDITION outlet
  TYPE dirichlet_zero_gradient
  CONSTRAINT_LIST
    0.d0 inlet
  /
END

TRANSPORT_CONDITION injectant
  TYPE dirichlet
  CONSTRAINT_LIST
    0.d0 injectant
  /
END

#=========================== constraints ======================================^M
CONSTRAINT initial
  CONCENTRATIONS
    A(aq)   1.d-20 T
    H+      -0.00011723 T
    O2(aq)  2.84d-4 T
    CrO4--  1.92d-5 T # 1000 ppb
    S2O4--  1.d-20 T
    S2O3--  1.d-20 T
    SO3--   1.d-20 T
    SO4--   1.d-20 T
    Fe+++   5.65094e-27 T
    Cr+++   2.24813e-18 T
    HCO3-   0.000117229 T
    Ca++    0.000117229 T
    K+      1.00d-05
  /
  MINERALS
    Fe(OH)3(s) 3.86d-3  1.d3 # 1% mass percent
    Cr(OH)3(s) 6.76011e-12 1.d3
    Calcite    0.00999858 1.d3
  /
  IMMOBILE
    slow_Fe++ 1.0d-20
    fast_Fe++ 1.0d-20
  /
END

CONSTRAINT inlet
  CONCENTRATIONS
    A(aq)   1.d-20 T
    H+      -0.00011723 T
    O2(aq)  2.84d-4 T
    CrO4--  1.92d-5 T # 1000 ppb
    S2O4--  1.d-20 T
    S2O3--  1.d-20 T
    SO3--   1.d-20 T
    SO4--   1.d-20 T
    Fe+++   5.65094e-27 T
    Cr+++   2.24813e-18 T
    HCO3-   0.000117229 T
    Ca++    0.000117229 T
    K+      1.00d-05
  /
END

CONSTRAINT injectant
  CONCENTRATIONS
    A(aq)   1.d-1 T
    H+     -0.4 T
    O2(aq)  2.84d-4 T
    CrO4--  1.d-20 T
    S2O4--  1.d-1  T
    S2O3--  1.d-20 T
    SO3--   1.d-20 T
    SO4--   1.d-20 T
    Fe+++   1.d-20 T
    Cr+++   1.d-20 T
    HCO3-   0.4 T
    Ca++    1.d-20 T
    K+      0.4 T
  /
END

#=========================== condition couplers ===============================
# initial condition
INITIAL_CONDITION
  TRANSPORT_CONDITION initial
  FLOW_CONDITION initial
  REGION all
END

BOUNDARY_CONDITION west
  TRANSPORT_CONDITION inlet
  FLOW_CONDITION west 
  REGION west 
END

BOUNDARY_CONDITION east  
  TRANSPORT_CONDITION outlet
  FLOW_CONDITION east 
  REGION east
END

SOURCE_SINK
  TRANSPORT_CONDITION injectant
  FLOW_CONDITION well
  REGION well_injection
END

#=========================== stratigraphy couplers ============================
STRATA
  REGION all 
  MATERIAL soil1
END

END_SUBSURFACE
